Circuit: * Este es un circuito sencillo adaptado para LTspice


Date: Mon Jan 04 13:44:08 2021
Total elapsed time: 0.033 seconds.

tnom = 27
temp = 27
method = trap
totiter = 2003
traniter = 0
tranpoints = 0
accept = 0
rejected = 0
matrix size = 2
fillins = 0
solver = Normal
Matrix Compiler1:       2 opcodes  0.0/[0.0]/0.0
Matrix Compiler2: off  [0.0]/0.0/0.0

